<?xml version="1.0" encoding="UTF-8"?>

<!-- generated on 2023-04-19 16:37:13 by Eclipse SUMO netedit Version 1.16.0
<configuration xmlns:xsi="http://www.w3.org/2001/XMLSchema-instance" xsi:noNamespaceSchemaLocation="http://sumo.dlr.de/xsd/netconvertConfiguration.xsd">

    <input>
        <sumo-net-file value="C:\Users\mszab\Desktop\customNet.net.xml"/>
    </input>

    <output>
        <output-file value="C:\Users\mszab\Desktop\customNet.net.xml"/>
    </output>

    <processing>
        <offset.disable-normalization value="true"/>
    </processing>

    <junctions>
        <no-turnarounds value="true"/>
    </junctions>

    <netedit>
        <new-network value="false"/>
    </netedit>

</configuration>
-->

<net version="1.16" junctionCornerDetail="5" limitTurnSpeed="5.50" xmlns:xsi="http://www.w3.org/2001/XMLSchema-instance" xsi:noNamespaceSchemaLocation="http://sumo.dlr.de/xsd/net_file.xsd">

    <location netOffset="0.00,0.00" convBoundary="-200.00,-100.00,100.00,100.00" origBoundary="10000000000.00,10000000000.00,-10000000000.00,-10000000000.00" projParameter="!"/>

    <edge id=":J24_0" function="internal">
        <lane id=":J24_0_0" index="0" speed="13.89" length="20.80" shape="-204.80,10.40 -204.80,-10.40"/>
        <lane id=":J24_0_1" index="1" speed="13.89" length="20.80" shape="-201.60,10.40 -201.60,-10.40"/>
    </edge>
    <edge id=":J24_2" function="internal">
        <lane id=":J24_2_0" index="0" speed="9.26" length="5.01" shape="-201.60,10.40 -200.89,5.44"/>
    </edge>
    <edge id=":J24_8" function="internal">
        <lane id=":J24_8_0" index="0" speed="9.26" length="14.34" shape="-200.89,5.44 -200.85,5.15 -198.60,1.40 -194.85,-0.85 -189.60,-1.60"/>
    </edge>
    <edge id=":J24_3" function="internal">
        <lane id=":J24_3_0" index="0" speed="6.51" length="9.03" shape="-189.60,4.80 -192.05,5.15 -193.80,6.20 -194.85,7.95 -195.20,10.40"/>
    </edge>
    <edge id=":J24_4" function="internal">
        <lane id=":J24_4_0" index="0" speed="9.26" length="19.35" shape="-189.60,1.60 -194.85,0.85 -198.60,-1.40 -200.85,-5.15 -201.60,-10.40"/>
    </edge>
    <edge id=":J24_5" function="internal">
        <lane id=":J24_5_0" index="0" speed="6.51" length="9.03" shape="-195.20,-10.40 -194.85,-7.95 -193.80,-6.20 -192.05,-5.15 -189.60,-4.80"/>
    </edge>
    <edge id=":J24_6" function="internal">
        <lane id=":J24_6_0" index="0" speed="13.89" length="20.80" shape="-195.20,-10.40 -195.20,10.40"/>
        <lane id=":J24_6_1" index="1" speed="13.89" length="20.80" shape="-198.40,-10.40 -198.40,10.40"/>
    </edge>
    <edge id=":J25_0" function="internal">
        <lane id=":J25_0_0" index="0" speed="6.51" length="9.03" shape="-104.80,10.40 -105.15,7.95 -106.20,6.20 -107.95,5.15 -110.40,4.80"/>
    </edge>
    <edge id=":J25_1" function="internal">
        <lane id=":J25_1_0" index="0" speed="13.89" length="20.80" shape="-104.80,10.40 -104.80,-10.40"/>
        <lane id=":J25_1_1" index="1" speed="13.89" length="20.80" shape="-101.60,10.40 -101.60,-10.40"/>
    </edge>
    <edge id=":J25_3" function="internal">
        <lane id=":J25_3_0" index="0" speed="9.26" length="5.01" shape="-101.60,10.40 -100.89,5.44"/>
    </edge>
    <edge id=":J25_16" function="internal">
        <lane id=":J25_16_0" index="0" speed="9.26" length="14.34" shape="-100.89,5.44 -100.85,5.15 -98.60,1.40 -94.85,-0.85 -89.60,-1.60"/>
    </edge>
    <edge id=":J25_4" function="internal">
        <lane id=":J25_4_0" index="0" speed="6.51" length="9.03" shape="-89.60,4.80 -92.05,5.15 -93.80,6.20 -94.85,7.95 -95.20,10.40"/>
    </edge>
    <edge id=":J25_5" function="internal">
        <lane id=":J25_5_0" index="0" speed="13.89" length="20.80" shape="-89.60,4.80 -110.40,4.80"/>
        <lane id=":J25_5_1" index="1" speed="13.89" length="20.80" shape="-89.60,1.60 -110.40,1.60"/>
    </edge>
    <edge id=":J25_7" function="internal">
        <lane id=":J25_7_0" index="0" speed="9.26" length="5.01" shape="-89.60,1.60 -94.56,0.89"/>
    </edge>
    <edge id=":J25_17" function="internal">
        <lane id=":J25_17_0" index="0" speed="9.26" length="14.34" shape="-94.56,0.89 -94.85,0.85 -98.60,-1.40 -100.85,-5.15 -101.60,-10.40"/>
    </edge>
    <edge id=":J25_8" function="internal">
        <lane id=":J25_8_0" index="0" speed="6.51" length="9.03" shape="-95.20,-10.40 -94.85,-7.95 -93.80,-6.20 -92.05,-5.15 -89.60,-4.80"/>
    </edge>
    <edge id=":J25_9" function="internal">
        <lane id=":J25_9_0" index="0" speed="13.89" length="20.80" shape="-95.20,-10.40 -95.20,10.40"/>
        <lane id=":J25_9_1" index="1" speed="13.89" length="20.80" shape="-98.40,-10.40 -98.40,10.40"/>
    </edge>
    <edge id=":J25_11" function="internal">
        <lane id=":J25_11_0" index="0" speed="9.26" length="5.01" shape="-98.40,-10.40 -99.11,-5.44"/>
    </edge>
    <edge id=":J25_18" function="internal">
        <lane id=":J25_18_0" index="0" speed="9.26" length="14.34" shape="-99.11,-5.44 -99.15,-5.15 -101.40,-1.40 -105.15,0.85 -110.40,1.60"/>
    </edge>
    <edge id=":J25_12" function="internal">
        <lane id=":J25_12_0" index="0" speed="6.51" length="9.03" shape="-110.40,-4.80 -107.95,-5.15 -106.20,-6.20 -105.15,-7.95 -104.80,-10.40"/>
    </edge>
    <edge id=":J25_13" function="internal">
        <lane id=":J25_13_0" index="0" speed="13.89" length="20.80" shape="-110.40,-4.80 -89.60,-4.80"/>
        <lane id=":J25_13_1" index="1" speed="13.89" length="20.80" shape="-110.40,-1.60 -89.60,-1.60"/>
    </edge>
    <edge id=":J25_15" function="internal">
        <lane id=":J25_15_0" index="0" speed="9.26" length="5.01" shape="-110.40,-1.60 -105.44,-0.89"/>
    </edge>
    <edge id=":J25_19" function="internal">
        <lane id=":J25_19_0" index="0" speed="9.26" length="14.34" shape="-105.44,-0.89 -105.15,-0.85 -101.40,1.40 -99.15,5.15 -98.40,10.40"/>
    </edge>
    <edge id=":J26_0" function="internal">
        <lane id=":J26_0_0" index="0" speed="13.89" length="20.80" shape="-89.60,104.80 -110.40,104.80"/>
        <lane id=":J26_0_1" index="1" speed="13.89" length="20.80" shape="-89.60,101.60 -110.40,101.60"/>
    </edge>
    <edge id=":J26_2" function="internal">
        <lane id=":J26_2_0" index="0" speed="9.26" length="5.01" shape="-89.60,101.60 -94.56,100.89"/>
    </edge>
    <edge id=":J26_8" function="internal">
        <lane id=":J26_8_0" index="0" speed="9.26" length="14.34" shape="-94.56,100.89 -94.85,100.85 -98.60,98.60 -100.85,94.85 -101.60,89.60"/>
    </edge>
    <edge id=":J26_3" function="internal">
        <lane id=":J26_3_0" index="0" speed="6.51" length="9.03" shape="-95.20,89.60 -94.85,92.05 -93.80,93.80 -92.05,94.85 -89.60,95.20"/>
    </edge>
    <edge id=":J26_4" function="internal">
        <lane id=":J26_4_0" index="0" speed="9.26" length="19.35" shape="-98.40,89.60 -99.15,94.85 -101.40,98.60 -105.15,100.85 -110.40,101.60"/>
    </edge>
    <edge id=":J26_5" function="internal">
        <lane id=":J26_5_0" index="0" speed="6.51" length="9.03" shape="-110.40,95.20 -107.95,94.85 -106.20,93.80 -105.15,92.05 -104.80,89.60"/>
    </edge>
    <edge id=":J26_6" function="internal">
        <lane id=":J26_6_0" index="0" speed="13.89" length="20.80" shape="-110.40,95.20 -89.60,95.20"/>
        <lane id=":J26_6_1" index="1" speed="13.89" length="20.80" shape="-110.40,98.40 -89.60,98.40"/>
    </edge>
    <edge id=":J27_0" function="internal">
        <lane id=":J27_0_0" index="0" speed="13.89" length="20.80" shape="10.40,104.80 -10.40,104.80"/>
        <lane id=":J27_0_1" index="1" speed="13.89" length="20.80" shape="10.40,101.60 -10.40,101.60"/>
    </edge>
    <edge id=":J27_2" function="internal">
        <lane id=":J27_2_0" index="0" speed="9.26" length="5.01" shape="10.40,101.60 5.44,100.89"/>
    </edge>
    <edge id=":J27_8" function="internal">
        <lane id=":J27_8_0" index="0" speed="9.26" length="14.34" shape="5.44,100.89 5.15,100.85 1.40,98.60 -0.85,94.85 -1.60,89.60"/>
    </edge>
    <edge id=":J27_3" function="internal">
        <lane id=":J27_3_0" index="0" speed="6.51" length="9.03" shape="4.80,89.60 5.15,92.05 6.20,93.80 7.95,94.85 10.40,95.20"/>
    </edge>
    <edge id=":J27_4" function="internal">
        <lane id=":J27_4_0" index="0" speed="9.26" length="19.35" shape="1.60,89.60 0.85,94.85 -1.40,98.60 -5.15,100.85 -10.40,101.60"/>
    </edge>
    <edge id=":J27_5" function="internal">
        <lane id=":J27_5_0" index="0" speed="6.51" length="9.03" shape="-10.40,95.20 -7.95,94.85 -6.20,93.80 -5.15,92.05 -4.80,89.60"/>
    </edge>
    <edge id=":J27_6" function="internal">
        <lane id=":J27_6_0" index="0" speed="13.89" length="20.80" shape="-10.40,95.20 10.40,95.20"/>
        <lane id=":J27_6_1" index="1" speed="13.89" length="20.80" shape="-10.40,98.40 10.40,98.40"/>
    </edge>
    <edge id=":J28_0" function="internal">
        <lane id=":J28_0_0" index="0" speed="6.51" length="9.03" shape="-4.80,10.40 -5.15,7.95 -6.20,6.20 -7.95,5.15 -10.40,4.80"/>
    </edge>
    <edge id=":J28_1" function="internal">
        <lane id=":J28_1_0" index="0" speed="13.89" length="20.80" shape="-4.80,10.40 -4.80,-10.40"/>
        <lane id=":J28_1_1" index="1" speed="13.89" length="20.80" shape="-1.60,10.40 -1.60,-10.40"/>
    </edge>
    <edge id=":J28_3" function="internal">
        <lane id=":J28_3_0" index="0" speed="9.26" length="5.01" shape="-1.60,10.40 -0.89,5.44"/>
    </edge>
    <edge id=":J28_16" function="internal">
        <lane id=":J28_16_0" index="0" speed="9.26" length="14.34" shape="-0.89,5.44 -0.85,5.15 1.40,1.40 5.15,-0.85 10.40,-1.60"/>
    </edge>
    <edge id=":J28_4" function="internal">
        <lane id=":J28_4_0" index="0" speed="6.51" length="9.03" shape="10.40,4.80 7.95,5.15 6.20,6.20 5.15,7.95 4.80,10.40"/>
    </edge>
    <edge id=":J28_5" function="internal">
        <lane id=":J28_5_0" index="0" speed="13.89" length="20.80" shape="10.40,4.80 -10.40,4.80"/>
        <lane id=":J28_5_1" index="1" speed="13.89" length="20.80" shape="10.40,1.60 -10.40,1.60"/>
    </edge>
    <edge id=":J28_7" function="internal">
        <lane id=":J28_7_0" index="0" speed="9.26" length="5.01" shape="10.40,1.60 5.44,0.89"/>
    </edge>
    <edge id=":J28_17" function="internal">
        <lane id=":J28_17_0" index="0" speed="9.26" length="14.34" shape="5.44,0.89 5.15,0.85 1.40,-1.40 -0.85,-5.15 -1.60,-10.40"/>
    </edge>
    <edge id=":J28_8" function="internal">
        <lane id=":J28_8_0" index="0" speed="6.51" length="9.03" shape="4.80,-10.40 5.15,-7.95 6.20,-6.20 7.95,-5.15 10.40,-4.80"/>
    </edge>
    <edge id=":J28_9" function="internal">
        <lane id=":J28_9_0" index="0" speed="13.89" length="20.80" shape="4.80,-10.40 4.80,10.40"/>
        <lane id=":J28_9_1" index="1" speed="13.89" length="20.80" shape="1.60,-10.40 1.60,10.40"/>
    </edge>
    <edge id=":J28_11" function="internal">
        <lane id=":J28_11_0" index="0" speed="9.26" length="5.01" shape="1.60,-10.40 0.89,-5.44"/>
    </edge>
    <edge id=":J28_18" function="internal">
        <lane id=":J28_18_0" index="0" speed="9.26" length="14.34" shape="0.89,-5.44 0.85,-5.15 -1.40,-1.40 -5.15,0.85 -10.40,1.60"/>
    </edge>
    <edge id=":J28_12" function="internal">
        <lane id=":J28_12_0" index="0" speed="6.51" length="9.03" shape="-10.40,-4.80 -7.95,-5.15 -6.20,-6.20 -5.15,-7.95 -4.80,-10.40"/>
    </edge>
    <edge id=":J28_13" function="internal">
        <lane id=":J28_13_0" index="0" speed="13.89" length="20.80" shape="-10.40,-4.80 10.40,-4.80"/>
        <lane id=":J28_13_1" index="1" speed="13.89" length="20.80" shape="-10.40,-1.60 10.40,-1.60"/>
    </edge>
    <edge id=":J28_15" function="internal">
        <lane id=":J28_15_0" index="0" speed="9.26" length="5.01" shape="-10.40,-1.60 -5.44,-0.89"/>
    </edge>
    <edge id=":J28_19" function="internal">
        <lane id=":J28_19_0" index="0" speed="9.26" length="14.34" shape="-5.44,-0.89 -5.15,-0.85 -1.40,1.40 0.85,5.15 1.60,10.40"/>
    </edge>
    <edge id=":J29_0" function="internal">
        <lane id=":J29_0_0" index="0" speed="6.51" length="9.03" shape="-104.80,-89.60 -105.15,-92.05 -106.20,-93.80 -107.95,-94.85 -110.40,-95.20"/>
    </edge>
    <edge id=":J29_1" function="internal">
        <lane id=":J29_1_0" index="0" speed="9.26" length="19.35" shape="-101.60,-89.60 -100.85,-94.85 -98.60,-98.60 -94.85,-100.85 -89.60,-101.60"/>
    </edge>
    <edge id=":J29_2" function="internal">
        <lane id=":J29_2_0" index="0" speed="6.51" length="9.03" shape="-89.60,-95.20 -92.05,-94.85 -93.80,-93.80 -94.85,-92.05 -95.20,-89.60"/>
    </edge>
    <edge id=":J29_3" function="internal">
        <lane id=":J29_3_0" index="0" speed="13.89" length="20.80" shape="-89.60,-95.20 -110.40,-95.20"/>
        <lane id=":J29_3_1" index="1" speed="13.89" length="20.80" shape="-89.60,-98.40 -110.40,-98.40"/>
    </edge>
    <edge id=":J29_5" function="internal">
        <lane id=":J29_5_0" index="0" speed="13.89" length="20.80" shape="-110.40,-104.80 -89.60,-104.80"/>
        <lane id=":J29_5_1" index="1" speed="13.89" length="20.80" shape="-110.40,-101.60 -89.60,-101.60"/>
    </edge>
    <edge id=":J29_7" function="internal">
        <lane id=":J29_7_0" index="0" speed="9.26" length="5.01" shape="-110.40,-101.60 -105.44,-100.89"/>
    </edge>
    <edge id=":J29_8" function="internal">
        <lane id=":J29_8_0" index="0" speed="9.26" length="14.34" shape="-105.44,-100.89 -105.15,-100.85 -101.40,-98.60 -99.15,-94.85 -98.40,-89.60"/>
    </edge>
    <edge id=":J30_0" function="internal">
        <lane id=":J30_0_0" index="0" speed="6.51" length="9.03" shape="-4.80,-89.60 -5.15,-92.05 -6.20,-93.80 -7.95,-94.85 -10.40,-95.20"/>
    </edge>
    <edge id=":J30_1" function="internal">
        <lane id=":J30_1_0" index="0" speed="9.26" length="19.35" shape="-1.60,-89.60 -0.85,-94.85 1.40,-98.60 5.15,-100.85 10.40,-101.60"/>
    </edge>
    <edge id=":J30_2" function="internal">
        <lane id=":J30_2_0" index="0" speed="6.51" length="9.03" shape="10.40,-95.20 7.95,-94.85 6.20,-93.80 5.15,-92.05 4.80,-89.60"/>
    </edge>
    <edge id=":J30_3" function="internal">
        <lane id=":J30_3_0" index="0" speed="13.89" length="20.80" shape="10.40,-95.20 -10.40,-95.20"/>
        <lane id=":J30_3_1" index="1" speed="13.89" length="20.80" shape="10.40,-98.40 -10.40,-98.40"/>
    </edge>
    <edge id=":J30_5" function="internal">
        <lane id=":J30_5_0" index="0" speed="13.89" length="20.80" shape="-10.40,-104.80 10.40,-104.80"/>
        <lane id=":J30_5_1" index="1" speed="13.89" length="20.80" shape="-10.40,-101.60 10.40,-101.60"/>
    </edge>
    <edge id=":J30_7" function="internal">
        <lane id=":J30_7_0" index="0" speed="9.26" length="5.01" shape="-10.40,-101.60 -5.44,-100.89"/>
    </edge>
    <edge id=":J30_8" function="internal">
        <lane id=":J30_8_0" index="0" speed="9.26" length="14.34" shape="-5.44,-100.89 -5.15,-100.85 -1.40,-98.60 0.85,-94.85 1.60,-89.60"/>
    </edge>
    <edge id=":J31_0" function="internal">
        <lane id=":J31_0_0" index="0" speed="6.51" length="9.03" shape="95.20,10.40 94.85,7.95 93.80,6.20 92.05,5.15 89.60,4.80"/>
    </edge>
    <edge id=":J31_1" function="internal">
        <lane id=":J31_1_0" index="0" speed="13.89" length="20.80" shape="95.20,10.40 95.20,-10.40"/>
        <lane id=":J31_1_1" index="1" speed="13.89" length="20.80" shape="98.40,10.40 98.40,-10.40"/>
    </edge>
    <edge id=":J31_3" function="internal">
        <lane id=":J31_3_0" index="0" speed="13.89" length="20.80" shape="104.80,-10.40 104.80,10.40"/>
        <lane id=":J31_3_1" index="1" speed="13.89" length="20.80" shape="101.60,-10.40 101.60,10.40"/>
    </edge>
    <edge id=":J31_5" function="internal">
        <lane id=":J31_5_0" index="0" speed="9.26" length="5.01" shape="101.60,-10.40 100.89,-5.44"/>
    </edge>
    <edge id=":J31_8" function="internal">
        <lane id=":J31_8_0" index="0" speed="9.26" length="14.34" shape="100.89,-5.44 100.85,-5.15 98.60,-1.40 94.85,0.85 89.60,1.60"/>
    </edge>
    <edge id=":J31_6" function="internal">
        <lane id=":J31_6_0" index="0" speed="6.51" length="9.03" shape="89.60,-4.80 92.05,-5.15 93.80,-6.20 94.85,-7.95 95.20,-10.40"/>
    </edge>
    <edge id=":J31_7" function="internal">
        <lane id=":J31_7_0" index="0" speed="9.26" length="19.35" shape="89.60,-1.60 94.85,-0.85 98.60,1.40 100.85,5.15 101.60,10.40"/>
    </edge>
    <edge id=":J32_0" function="internal">
        <lane id=":J32_0_0" index="0" speed="8.96" length="18.06" shape="-204.80,-93.60 -204.10,-98.50 -202.00,-102.00 -198.50,-104.10 -193.60,-104.80"/>
        <lane id=":J32_0_1" index="1" speed="7.66" length="12.90" shape="-201.60,-93.60 -201.10,-97.10 -199.60,-99.60 -197.10,-101.10 -193.60,-101.60"/>
    </edge>
    <edge id=":J32_2" function="internal">
        <lane id=":J32_2_0" index="0" speed="3.90" length="2.58" shape="-193.60,-95.20 -194.30,-95.10 -194.80,-94.80 -195.10,-94.30 -195.20,-93.60"/>
        <lane id=":J32_2_1" index="1" speed="6.08" length="7.74" shape="-193.60,-98.40 -195.70,-98.10 -197.20,-97.20 -198.10,-95.70 -198.40,-93.60"/>
    </edge>
    <edge id=":J33_0" function="internal">
        <lane id=":J33_0_0" index="0" speed="8.96" length="18.06" shape="-193.60,104.80 -198.50,104.10 -202.00,102.00 -204.10,98.50 -204.80,93.60"/>
        <lane id=":J33_0_1" index="1" speed="7.66" length="12.90" shape="-193.60,101.60 -197.10,101.10 -199.60,99.60 -201.10,97.10 -201.60,93.60"/>
    </edge>
    <edge id=":J33_2" function="internal">
        <lane id=":J33_2_0" index="0" speed="3.90" length="2.58" shape="-195.20,93.60 -195.10,94.30 -194.80,94.80 -194.30,95.10 -193.60,95.20"/>
        <lane id=":J33_2_1" index="1" speed="6.08" length="7.74" shape="-198.40,93.60 -198.10,95.70 -197.20,97.20 -195.70,98.10 -193.60,98.40"/>
    </edge>
    <edge id=":J34_0" function="internal">
        <lane id=":J34_0_0" index="0" speed="8.96" length="18.06" shape="104.80,93.60 104.10,98.50 102.00,102.00 98.50,104.10 93.60,104.80"/>
        <lane id=":J34_0_1" index="1" speed="7.66" length="12.90" shape="101.60,93.60 101.10,97.10 99.60,99.60 97.10,101.10 93.60,101.60"/>
    </edge>
    <edge id=":J34_2" function="internal">
        <lane id=":J34_2_0" index="0" speed="3.90" length="2.58" shape="93.60,95.20 94.30,95.10 94.80,94.80 95.10,94.30 95.20,93.60"/>
        <lane id=":J34_2_1" index="1" speed="6.08" length="7.74" shape="93.60,98.40 95.70,98.10 97.20,97.20 98.10,95.70 98.40,93.60"/>
    </edge>
    <edge id=":J35_0" function="internal">
        <lane id=":J35_0_0" index="0" speed="3.90" length="2.58" shape="95.20,-93.60 95.10,-94.30 94.80,-94.80 94.30,-95.10 93.60,-95.20"/>
        <lane id=":J35_0_1" index="1" speed="6.08" length="7.74" shape="98.40,-93.60 98.10,-95.70 97.20,-97.20 95.70,-98.10 93.60,-98.40"/>
    </edge>
    <edge id=":J35_2" function="internal">
        <lane id=":J35_2_0" index="0" speed="8.96" length="18.06" shape="93.60,-104.80 98.50,-104.10 102.00,-102.00 104.10,-98.50 104.80,-93.60"/>
        <lane id=":J35_2_1" index="1" speed="7.66" length="12.90" shape="93.60,-101.60 97.10,-101.10 99.60,-99.60 101.10,-97.10 101.60,-93.60"/>
    </edge>

    <edge id="-E15" from="J25" to="J24" priority="-1">
        <lane id="-E15_0" index="0" speed="13.89" length="79.20" shape="-110.40,4.80 -189.60,4.80"/>
        <lane id="-E15_1" index="1" speed="13.89" length="79.20" shape="-110.40,1.60 -189.60,1.60"/>
    </edge>
    <edge id="-E16" from="J26" to="J25" priority="-1">
        <lane id="-E16_0" index="0" speed="13.89" length="79.20" shape="-104.80,89.60 -104.80,10.40"/>
        <lane id="-E16_1" index="1" speed="13.89" length="79.20" shape="-101.60,89.60 -101.60,10.40"/>
    </edge>
    <edge id="-E17" from="J27" to="J26" priority="-1">
        <lane id="-E17_0" index="0" speed="13.89" length="79.20" shape="-10.40,104.80 -89.60,104.80"/>
        <lane id="-E17_1" index="1" speed="13.89" length="79.20" shape="-10.40,101.60 -89.60,101.60"/>
    </edge>
    <edge id="-E18" from="J28" to="J27" priority="-1">
        <lane id="-E18_0" index="0" speed="13.89" length="79.20" shape="4.80,10.40 4.80,89.60"/>
        <lane id="-E18_1" index="1" speed="13.89" length="79.20" shape="1.60,10.40 1.60,89.60"/>
    </edge>
    <edge id="-E19" from="J25" to="J28" priority="-1">
        <lane id="-E19_0" index="0" speed="13.89" length="79.20" shape="-89.60,-4.80 -10.40,-4.80"/>
        <lane id="-E19_1" index="1" speed="13.89" length="79.20" shape="-89.60,-1.60 -10.40,-1.60"/>
    </edge>
    <edge id="-E20" from="J29" to="J25" priority="-1">
        <lane id="-E20_0" index="0" speed="13.89" length="79.20" shape="-95.20,-89.60 -95.20,-10.40"/>
        <lane id="-E20_1" index="1" speed="13.89" length="79.20" shape="-98.40,-89.60 -98.40,-10.40"/>
    </edge>
    <edge id="-E21" from="J30" to="J29" priority="-1">
        <lane id="-E21_0" index="0" speed="13.89" length="79.20" shape="-10.40,-95.20 -89.60,-95.20"/>
        <lane id="-E21_1" index="1" speed="13.89" length="79.20" shape="-10.40,-98.40 -89.60,-98.40"/>
    </edge>
    <edge id="-E22" from="J28" to="J30" priority="-1">
        <lane id="-E22_0" index="0" speed="13.89" length="79.20" shape="-4.80,-10.40 -4.80,-89.60"/>
        <lane id="-E22_1" index="1" speed="13.89" length="79.20" shape="-1.60,-10.40 -1.60,-89.60"/>
    </edge>
    <edge id="-E23" from="J31" to="J28" priority="-1">
        <lane id="-E23_0" index="0" speed="13.89" length="79.20" shape="89.60,4.80 10.40,4.80"/>
        <lane id="-E23_1" index="1" speed="13.89" length="79.20" shape="89.60,1.60 10.40,1.60"/>
    </edge>
    <edge id="-E24" from="J32" to="J24" priority="-1">
        <lane id="-E24_0" index="0" speed="13.89" length="83.20" shape="-195.20,-93.60 -195.20,-10.40"/>
        <lane id="-E24_1" index="1" speed="13.89" length="83.20" shape="-198.40,-93.60 -198.40,-10.40"/>
    </edge>
    <edge id="-E25" from="J29" to="J32" priority="-1">
        <lane id="-E25_0" index="0" speed="13.89" length="83.20" shape="-110.40,-95.20 -193.60,-95.20"/>
        <lane id="-E25_1" index="1" speed="13.89" length="83.20" shape="-110.40,-98.40 -193.60,-98.40"/>
    </edge>
    <edge id="-E26" from="J33" to="J24" priority="-1">
        <lane id="-E26_0" index="0" speed="13.89" length="83.20" shape="-204.80,93.60 -204.80,10.40"/>
        <lane id="-E26_1" index="1" speed="13.89" length="83.20" shape="-201.60,93.60 -201.60,10.40"/>
    </edge>
    <edge id="-E27" from="J26" to="J33" priority="-1">
        <lane id="-E27_0" index="0" speed="13.89" length="83.20" shape="-110.40,104.80 -193.60,104.80"/>
        <lane id="-E27_1" index="1" speed="13.89" length="83.20" shape="-110.40,101.60 -193.60,101.60"/>
    </edge>
    <edge id="-E28" from="J34" to="J31" priority="-1">
        <lane id="-E28_0" index="0" speed="13.89" length="83.20" shape="95.20,93.60 95.20,10.40"/>
        <lane id="-E28_1" index="1" speed="13.89" length="83.20" shape="98.40,93.60 98.40,10.40"/>
    </edge>
    <edge id="-E29" from="J27" to="J34" priority="-1">
        <lane id="-E29_0" index="0" speed="13.89" length="83.20" shape="10.40,95.20 93.60,95.20"/>
        <lane id="-E29_1" index="1" speed="13.89" length="83.20" shape="10.40,98.40 93.60,98.40"/>
    </edge>
    <edge id="-E30" from="J35" to="J31" priority="-1">
        <lane id="-E30_0" index="0" speed="13.89" length="83.20" shape="104.80,-93.60 104.80,-10.40"/>
        <lane id="-E30_1" index="1" speed="13.89" length="83.20" shape="101.60,-93.60 101.60,-10.40"/>
    </edge>
    <edge id="-E31" from="J30" to="J35" priority="-1">
        <lane id="-E31_0" index="0" speed="13.89" length="83.20" shape="10.40,-104.80 93.60,-104.80"/>
        <lane id="-E31_1" index="1" speed="13.89" length="83.20" shape="10.40,-101.60 93.60,-101.60"/>
    </edge>
    <edge id="E15" from="J24" to="J25" priority="-1">
        <lane id="E15_0" index="0" speed="13.89" length="79.20" shape="-189.60,-4.80 -110.40,-4.80"/>
        <lane id="E15_1" index="1" speed="13.89" length="79.20" shape="-189.60,-1.60 -110.40,-1.60"/>
    </edge>
    <edge id="E16" from="J25" to="J26" priority="-1">
        <lane id="E16_0" index="0" speed="13.89" length="79.20" shape="-95.20,10.40 -95.20,89.60"/>
        <lane id="E16_1" index="1" speed="13.89" length="79.20" shape="-98.40,10.40 -98.40,89.60"/>
    </edge>
    <edge id="E17" from="J26" to="J27" priority="-1">
        <lane id="E17_0" index="0" speed="13.89" length="79.20" shape="-89.60,95.20 -10.40,95.20"/>
        <lane id="E17_1" index="1" speed="13.89" length="79.20" shape="-89.60,98.40 -10.40,98.40"/>
    </edge>
    <edge id="E18" from="J27" to="J28" priority="-1">
        <lane id="E18_0" index="0" speed="13.89" length="79.20" shape="-4.80,89.60 -4.80,10.40"/>
        <lane id="E18_1" index="1" speed="13.89" length="79.20" shape="-1.60,89.60 -1.60,10.40"/>
    </edge>
    <edge id="E19" from="J28" to="J25" priority="-1">
        <lane id="E19_0" index="0" speed="13.89" length="79.20" shape="-10.40,4.80 -89.60,4.80"/>
        <lane id="E19_1" index="1" speed="13.89" length="79.20" shape="-10.40,1.60 -89.60,1.60"/>
    </edge>
    <edge id="E20" from="J25" to="J29" priority="-1">
        <lane id="E20_0" index="0" speed="13.89" length="79.20" shape="-104.80,-10.40 -104.80,-89.60"/>
        <lane id="E20_1" index="1" speed="13.89" length="79.20" shape="-101.60,-10.40 -101.60,-89.60"/>
    </edge>
    <edge id="E21" from="J29" to="J30" priority="-1">
        <lane id="E21_0" index="0" speed="13.89" length="79.20" shape="-89.60,-104.80 -10.40,-104.80"/>
        <lane id="E21_1" index="1" speed="13.89" length="79.20" shape="-89.60,-101.60 -10.40,-101.60"/>
    </edge>
    <edge id="E22" from="J30" to="J28" priority="-1">
        <lane id="E22_0" index="0" speed="13.89" length="79.20" shape="4.80,-89.60 4.80,-10.40"/>
        <lane id="E22_1" index="1" speed="13.89" length="79.20" shape="1.60,-89.60 1.60,-10.40"/>
    </edge>
    <edge id="E23" from="J28" to="J31" priority="-1">
        <lane id="E23_0" index="0" speed="13.89" length="79.20" shape="10.40,-4.80 89.60,-4.80"/>
        <lane id="E23_1" index="1" speed="13.89" length="79.20" shape="10.40,-1.60 89.60,-1.60"/>
    </edge>
    <edge id="E24" from="J24" to="J32" priority="-1">
        <lane id="E24_0" index="0" speed="13.89" length="83.20" shape="-204.80,-10.40 -204.80,-93.60"/>
        <lane id="E24_1" index="1" speed="13.89" length="83.20" shape="-201.60,-10.40 -201.60,-93.60"/>
    </edge>
    <edge id="E25" from="J32" to="J29" priority="-1">
        <lane id="E25_0" index="0" speed="13.89" length="83.20" shape="-193.60,-104.80 -110.40,-104.80"/>
        <lane id="E25_1" index="1" speed="13.89" length="83.20" shape="-193.60,-101.60 -110.40,-101.60"/>
    </edge>
    <edge id="E26" from="J24" to="J33" priority="-1">
        <lane id="E26_0" index="0" speed="13.89" length="83.20" shape="-195.20,10.40 -195.20,93.60"/>
        <lane id="E26_1" index="1" speed="13.89" length="83.20" shape="-198.40,10.40 -198.40,93.60"/>
    </edge>
    <edge id="E27" from="J33" to="J26" priority="-1">
        <lane id="E27_0" index="0" speed="13.89" length="83.20" shape="-193.60,95.20 -110.40,95.20"/>
        <lane id="E27_1" index="1" speed="13.89" length="83.20" shape="-193.60,98.40 -110.40,98.40"/>
    </edge>
    <edge id="E28" from="J31" to="J34" priority="-1">
        <lane id="E28_0" index="0" speed="13.89" length="83.20" shape="104.80,10.40 104.80,93.60"/>
        <lane id="E28_1" index="1" speed="13.89" length="83.20" shape="101.60,10.40 101.60,93.60"/>
    </edge>
    <edge id="E29" from="J34" to="J27" priority="-1">
        <lane id="E29_0" index="0" speed="13.89" length="83.20" shape="93.60,104.80 10.40,104.80"/>
        <lane id="E29_1" index="1" speed="13.89" length="83.20" shape="93.60,101.60 10.40,101.60"/>
    </edge>
    <edge id="E30" from="J31" to="J35" priority="-1">
        <lane id="E30_0" index="0" speed="13.89" length="83.20" shape="95.20,-10.40 95.20,-93.60"/>
        <lane id="E30_1" index="1" speed="13.89" length="83.20" shape="98.40,-10.40 98.40,-93.60"/>
    </edge>
    <edge id="E31" from="J35" to="J30" priority="-1">
        <lane id="E31_0" index="0" speed="13.89" length="83.20" shape="93.60,-95.20 10.40,-95.20"/>
        <lane id="E31_1" index="1" speed="13.89" length="83.20" shape="93.60,-98.40 10.40,-98.40"/>
    </edge>

    <tlLogic id="J24" type="static" programID="0" offset="0">
        <phase duration="42" state="GGgrrGGG"/>
        <phase duration="3"  state="yyyrryyy"/>
        <phase duration="42" state="rrrGGGrr"/>
        <phase duration="3"  state="rrryyyrr"/>
    </tlLogic>
    <tlLogic id="J25" type="static" programID="0" offset="0">
        <phase duration="42" state="GGGgrrrrGGGgrrrr"/>
        <phase duration="3"  state="yyyyrrrryyyyrrrr"/>
        <phase duration="42" state="rrrrGGGgrrrrGGGg"/>
        <phase duration="3"  state="rrrryyyyrrrryyyy"/>
    </tlLogic>
    <tlLogic id="J26" type="static" programID="0" offset="0">
        <phase duration="42" state="GGgrrGGG"/>
        <phase duration="3"  state="yyyrryyy"/>
        <phase duration="42" state="rrrGGGrr"/>
        <phase duration="3"  state="rrryyyrr"/>
    </tlLogic>
    <tlLogic id="J27" type="static" programID="0" offset="0">
        <phase duration="42" state="GGgrrGGG"/>
        <phase duration="3"  state="yyyrryyy"/>
        <phase duration="42" state="rrrGGGrr"/>
        <phase duration="3"  state="rrryyyrr"/>
    </tlLogic>
    <tlLogic id="J28" type="static" programID="0" offset="0">
        <phase duration="42" state="GGGgrrrrGGGgrrrr"/>
        <phase duration="3"  state="yyyyrrrryyyyrrrr"/>
        <phase duration="42" state="rrrrGGGgrrrrGGGg"/>
        <phase duration="3"  state="rrrryyyyrrrryyyy"/>
    </tlLogic>
    <tlLogic id="J29" type="static" programID="0" offset="0">
        <phase duration="42" state="rrGGGGGg"/>
        <phase duration="3"  state="rryyyyyy"/>
        <phase duration="42" state="GGGrrrrr"/>
        <phase duration="3"  state="yyyrrrrr"/>
    </tlLogic>
    <tlLogic id="J30" type="static" programID="0" offset="0">